*Heading
** Job name: indentationTest Model name: indentationTest
** Generated by: Abaqus/CAE 2021.HF11
*Preprint, echo=NO, model=NO, history=NO, contact=NO
**
** PARTS
**
*Part, name=primaryPart
*Node
      1,          15.,           0.,          10.
      2,       13.125,           0.,          10.
      3,        11.25,           0.,          10.
      4,        9.375,           0.,          10.
      5,          7.5,           0.,          10.
      6,        5.625,           0.,          10.
      7,         3.75,           0.,          10.
      8,        1.875,           0.,          10.
      9,           0.,           0.,          10.
     10,          15.,           0.,           8.
     11,       13.125,           0.,           8.
     12,        11.25,           0.,           8.
     13,        9.375,           0.,           8.
     14,          7.5,           0.,           8.
     15,        5.625,           0.,           8.
     16,         3.75,           0.,           8.
     17,        1.875,           0.,           8.
     18,           0.,           0.,           8.
     19,          15.,           0.,           6.
     20,       13.125,           0.,           6.
** ... 466 like lines cut
*Element, type=C3D8T
  1,  55,  56,  65,  64,   1,   2,  11,  10
  2,  56,  57,  66,  65,   2,   3,  12,  11
  3,  57,  58,  67,  66,   3,   4,  13,  12
  4,  58,  59,  68,  67,   4,   5,  14,  13
  5,  59,  60,  69,  68,   5,   6,  15,  14
  6,  60,  61,  70,  69,   6,   7,  16,  15
  7,  61,  62,  71,  70,   7,   8,  17,  16
  8,  62,  63,  72,  71,   8,   9,  18,  17
  9,  64,  65,  74,  73,  10,  11,  20,  19
 10,  65,  66,  75,  74,  11,  12,  21,  20
 11,  66,  67,  76,  75,  12,  13,  22,  21
 12,  67,  68,  77,  76,  13,  14,  23,  22
 13,  68,  69,  78,  77,  14,  15,  24,  23
 14,  69,  70,  79,  78,  15,  16,  25,  24
 15,  70,  71,  80,  79,  16,  17,  26,  25
 16,  71,  72,  81,  80,  17,  18,  27,  26
 17,  73,  74,  83,  82,  19,  20,  29,  28
 18,  74,  75,  84,  83,  20,  21,  30,  29
 19,  75,  76,  85,  84,  21,  22,  31,  30
 20,  76,  77,  86,  85,  22,  23,  32,  31
** ... 300 like lines cut
*Nset, nset=allPrimaryCells, generate
   1,  486,    1
*Elset, elset=allPrimaryCells, generate
   1,  320,    1
*Nset, nset=x0Face, generate
   9,  486,    9
*Elset, elset=x0Face, generate
   8,  320,    8
*Nset, nset=y0Face, generate
  1,  54,   1
*Elset, elset=y0Face, generate
  1,  40,   1
*Nset, nset=z0Face
   1,   2,   3,   4,   5,   6,   7,   8,   9,  55,  56,  57,  58,  59,  60,  61
  62,  63, 109, 110, 111, 112, 113, 114, 115, 116, 117, 163, 164, 165, 166, 167
 168, 169, 170, 171, 217, 218, 219, 220, 221, 222, 223, 224, 225, 271, 272, 273
 274, 275, 276, 277, 278, 279, 325, 326, 327, 328, 329, 330, 331, 332, 333, 379
 380, 381, 382, 383, 384, 385, 386, 387, 433, 434, 435, 436, 437, 438, 439, 440
 441,
*Elset, elset=z0Face
   1,   2,   3,   4,   5,   6,   7,   8,  41,  42,  43,  44,  45,  46,  47,  48
  81,  82,  83,  84,  85,  86,  87,  88, 121, 122, 123, 124, 125, 126, 127, 128
 161, 162, 163, 164, 165, 166, 167, 168, 201, 202, 203, 204, 205, 206, 207, 208
 241, 242, 243, 244, 245, 246, 247, 248, 281, 282, 283, 284, 285, 286, 287, 288
** Section: primarySection
*Solid Section, elset=allPrimaryCells, material=primaryMaterial
,
*End Part
**  
*Part, name=secondaryPart
*Node
      1,          15.,           0.,          10.
      2,       13.125,           0.,          10.
      3,        11.25,           0.,          10.
      4,        9.375,           0.,          10.
      5,          7.5,           0.,          10.
      6,        5.625,           0.,          10.
      7,         3.75,           0.,          10.
      8,        1.875,           0.,          10.
      9,           0.,           0.,          10.
     10,          15.,           0.,           8.
     11,       13.125,           0.,           8.
     12,        11.25,           0.,           8.
     13,        9.375,           0.,           8.
     14,          7.5,           0.,           8.
     15,        5.625,           0.,           8.
     16,         3.75,           0.,           8.
     17,        1.875,           0.,           8.
     18,           0.,           0.,           8.
     19,          15.,           0.,           6.
     20,       13.125,           0.,           6.
** ... 466 like lines cut
*Element, type=C3D8T
  1,  55,  56,  65,  64,   1,   2,  11,  10
  2,  56,  57,  66,  65,   2,   3,  12,  11
  3,  57,  58,  67,  66,   3,   4,  13,  12
  4,  58,  59,  68,  67,   4,   5,  14,  13
  5,  59,  60,  69,  68,   5,   6,  15,  14
  6,  60,  61,  70,  69,   6,   7,  16,  15
  7,  61,  62,  71,  70,   7,   8,  17,  16
  8,  62,  63,  72,  71,   8,   9,  18,  17
  9,  64,  65,  74,  73,  10,  11,  20,  19
 10,  65,  66,  75,  74,  11,  12,  21,  20
 11,  66,  67,  76,  75,  12,  13,  22,  21
 12,  67,  68,  77,  76,  13,  14,  23,  22
 13,  68,  69,  78,  77,  14,  15,  24,  23
 14,  69,  70,  79,  78,  15,  16,  25,  24
 15,  70,  71,  80,  79,  16,  17,  26,  25
 16,  71,  72,  81,  80,  17,  18,  27,  26
 17,  73,  74,  83,  82,  19,  20,  29,  28
 18,  74,  75,  84,  83,  20,  21,  30,  29
 19,  75,  76,  85,  84,  21,  22,  31,  30
 20,  76,  77,  86,  85,  22,  23,  32,  31
** ... 300 like lines cut
*Nset, nset=allSecondaryCells, generate
   1,  486,    1
*Elset, elset=allSecondaryCells, generate
   1,  320,    1
** Section: secondarySection
*Solid Section, elset=allSecondaryCells, material=secondaryMaterial
,
*End Part
**  
*Part, name=spherePart
*Node
      1,           0.,    6.4000001,           0.
      2,           0.,           0.,           0.
      3,           0.,           0.,    6.4000001
      4,           0.,   5.07230997,    5.1683507
      5,    6.4000001,           0.,           0.
      6,   5.10580254,           0.,   5.10580254
      7,   4.31428432,   4.29977989,   4.05933237
      8,    5.1683507,   5.07230997,           0.
      9,           0.,           0.,           8.
     10,           0.,   5.65685415,   5.65685415
     11,   5.65685415,           0.,   5.65685415
     12,   4.74636984,   4.73599195,   4.36375427
     13,           0.,           8.,           0.
     14,   5.65685415,   5.65685415,           0.
     15,           8.,           0.,           0.
     16,           0.,   4.80000019,           0.
     17,           0.,   3.20000005,           0.
     18,           0.,   1.60000002,           0.
     19,           0.,           0.,   1.60000002
     20,           0.,           0.,   3.20000005
** ... 166 like lines cut
*Element, type=C3D8T
  1,  43, 115, 160,  97,   1,  16,  79,  27
  2, 115, 116, 161, 160,  16,  17,  80,  79
  3, 116, 117, 162, 161,  17,  18,  81,  80
  4, 117,  49, 106, 162,  18,   2,  19,  81
  5,  97, 160, 163,  98,  27,  79,  82,  26
  6, 160, 161, 164, 163,  79,  80,  83,  82
  7, 161, 162, 165, 164,  80,  81,  84,  83
  8, 162, 106, 107, 165,  81,  19,  20,  84
  9,  98, 163, 166,  99,  26,  82,  85,  25
 10, 163, 164, 167, 166,  82,  83,  86,  85
 11, 164, 165, 168, 167,  83,  84,  87,  86
 12, 165, 107, 108, 168,  84,  20,  21,  87
 13,  99, 166, 124,  42,  25,  85,  24,   4
 14, 166, 167, 125, 124,  85,  86,  23,  24
 15, 167, 168, 126, 125,  86,  87,  22,  23
 16, 168, 108,  48, 126,  87,  21,   3,  22
 17,  44, 118, 169, 100,  43, 115, 160,  97
 18, 118, 119, 170, 169, 115, 116, 161, 160
 19, 119, 120, 171, 170, 116, 117, 162, 161
 20, 120,  50, 109, 171, 117,  49, 106, 162
** ... 92 like lines cut
*Nset, nset=allSphereCells, generate
   1,  186,    1
*Elset, elset=allSphereCells, generate
   1,  112,    1
*Nset, nset=x1Point
 9,
*Nset, nset=x0Face
  1,  2,  3,  4,  9, 10, 13, 16, 17, 18, 19, 20, 21, 22, 23, 24
 25, 26, 27, 52, 53, 54, 64, 65, 66, 79, 80, 81, 82, 83, 84, 85
 86, 87
*Elset, elset=x0Face
  1,  2,  3,  4,  5,  6,  7,  8,  9, 10, 11, 12, 13, 14, 15, 16
 65, 66, 67, 68, 81, 82, 83, 84
*Nset, nset=y0Face
   2,   3,   5,   6,   9,  11,  15,  19,  20,  21,  31,  32,  33,  46,  47,  48
  49,  50,  51,  61,  62,  63,  73,  74,  75, 106, 107, 108, 109, 110, 111, 112
 113, 114
*Elset, elset=y0Face
   4,   8,  12,  16,  20,  24,  28,  32,  36,  40,  44,  48,  52,  56,  60,  64
  65,  69,  73,  77,  97,  98,  99, 100
*Nset, nset=z0Face
   1,   2,   5,   8,  13,  14,  15,  16,  17,  18,  28,  29,  30,  43,  44,  45
  49,  50,  51,  70,  71,  72,  76,  77,  78, 115, 116, 117, 118, 119, 120, 121
 122, 123
*Elset, elset=z0Face
   1,   2,   3,   4,  17,  18,  19,  20,  33,  34,  35,  36,  49,  50,  51,  52
  84,  88,  92,  96,  97, 101, 105, 109
** Section: sphereSection
*Solid Section, elset=allSphereCells, material=sphereMaterial
,
*End Part
**  
**
** ASSEMBLY
**
*Assembly, name=Assembly
**  
*Instance, name=sphereInstance, part=spherePart
          0.,           0.,          -8.
*End Instance
**  
*Instance, name=primaryInstance, part=primaryPart
*End Instance
**  
*Instance, name=secondaryInstance, part=secondaryPart
         60.,           0.,           0.
*End Instance
**  
*Nset, nset=P-0, instance=primaryInstance
 1,
*Nset, nset=P-1, instance=primaryInstance
 2,
*Nset, nset=P-2, instance=primaryInstance
 3,
*Nset, nset=P-3, instance=primaryInstance
 4,
*Nset, nset=P-4, instance=primaryInstance
 5,
*Nset, nset=P-5, instance=primaryInstance
 6,
*Nset, nset=P-6, instance=primaryInstance
 7,
*Nset, nset=P-7, instance=primaryInstance
 8,
*Nset, nset=P-8, instance=primaryInstance
 9,
*Nset, nset=P-9, instance=primaryInstance
 10,
*Nset, nset=P-10, instance=primaryInstance
 11,
*Nset, nset=P-11, instance=primaryInstance
 12,
*Nset, nset=P-12, instance=primaryInstance
 13,
*Nset, nset=P-13, instance=primaryInstance
 14,
*Nset, nset=P-14, instance=primaryInstance
 15,
*Nset, nset=P-15, instance=primaryInstance
 16,
*Nset, nset=P-16, instance=primaryInstance
 17,
*Nset, nset=P-17, instance=primaryInstance
 18,
*Nset, nset=P-18, instance=primaryInstance
 19,
*Nset, nset=P-19, instance=primaryInstance
 20,
** ... 932 like lines cut
*Nset, nset=S-0, instance=secondaryInstance
 1,
*Nset, nset=S-1, instance=secondaryInstance
 2,
*Nset, nset=S-2, instance=secondaryInstance
 3,
*Nset, nset=S-3, instance=secondaryInstance
 4,
*Nset, nset=S-4, instance=secondaryInstance
 5,
*Nset, nset=S-5, instance=secondaryInstance
 6,
*Nset, nset=S-6, instance=secondaryInstance
 7,
*Nset, nset=S-7, instance=secondaryInstance
 8,
*Nset, nset=S-8, instance=secondaryInstance
 9,
*Nset, nset=S-9, instance=secondaryInstance
 10,
*Nset, nset=S-10, instance=secondaryInstance
 11,
*Nset, nset=S-11, instance=secondaryInstance
 12,
*Nset, nset=S-12, instance=secondaryInstance
 13,
*Nset, nset=S-13, instance=secondaryInstance
 14,
*Nset, nset=S-14, instance=secondaryInstance
 15,
*Nset, nset=S-15, instance=secondaryInstance
 16,
*Nset, nset=S-16, instance=secondaryInstance
 17,
*Nset, nset=S-17, instance=secondaryInstance
 18,
*Nset, nset=S-18, instance=secondaryInstance
 19,
*Nset, nset=S-19, instance=secondaryInstance
 20,
** ... 932 like lines cut
*Surface, type=NODE, name=S-0_CNS_, internal
S-0, 1.
*Surface, type=NODE, name=S-1_CNS_, internal
S-1, 1.
*Surface, type=NODE, name=S-2_CNS_, internal
S-2, 1.
*Surface, type=NODE, name=S-3_CNS_, internal
S-3, 1.
*Surface, type=NODE, name=S-4_CNS_, internal
S-4, 1.
*Surface, type=NODE, name=S-5_CNS_, internal
S-5, 1.
*Surface, type=NODE, name=S-6_CNS_, internal
S-6, 1.
*Surface, type=NODE, name=S-7_CNS_, internal
S-7, 1.
*Surface, type=NODE, name=S-8_CNS_, internal
S-8, 1.
*Surface, type=NODE, name=S-9_CNS_, internal
S-9, 1.
*Surface, type=NODE, name=S-10_CNS_, internal
S-10, 1.
*Surface, type=NODE, name=S-11_CNS_, internal
S-11, 1.
*Surface, type=NODE, name=S-12_CNS_, internal
S-12, 1.
*Surface, type=NODE, name=S-13_CNS_, internal
S-13, 1.
*Surface, type=NODE, name=S-14_CNS_, internal
S-14, 1.
*Surface, type=NODE, name=S-15_CNS_, internal
S-15, 1.
*Surface, type=NODE, name=S-16_CNS_, internal
S-16, 1.
*Surface, type=NODE, name=S-17_CNS_, internal
S-17, 1.
*Surface, type=NODE, name=S-18_CNS_, internal
S-18, 1.
*Surface, type=NODE, name=S-19_CNS_, internal
S-19, 1.
** ... 932 like lines cut
** Constraint: P-S-0
*MPC
PIN, S-0, P-0
** Constraint: P-S-1
*MPC
PIN, S-1, P-1
** Constraint: P-S-2
*MPC
PIN, S-2, P-2
** Constraint: P-S-3
*MPC
PIN, S-3, P-3
** Constraint: P-S-4
*MPC
PIN, S-4, P-4
** Constraint: P-S-5
*MPC
PIN, S-5, P-5
** Constraint: P-S-6
*MPC
PIN, S-6, P-6
** Constraint: P-S-7
*MPC
PIN, S-7, P-7
** Constraint: P-S-8
*MPC
PIN, S-8, P-8
** Constraint: P-S-9
*MPC
PIN, S-9, P-9
** Constraint: P-S-10
*MPC
PIN, S-10, P-10
** Constraint: P-S-11
*MPC
PIN, S-11, P-11
** Constraint: P-S-12
*MPC
PIN, S-12, P-12
** Constraint: P-S-13
*MPC
PIN, S-13, P-13
** Constraint: P-S-14
*MPC
PIN, S-14, P-14
** Constraint: P-S-15
*MPC
PIN, S-15, P-15
** Constraint: P-S-16
*MPC
PIN, S-16, P-16
** Constraint: P-S-17
*MPC
PIN, S-17, P-17
** Constraint: P-S-18
*MPC
PIN, S-18, P-18
** Constraint: P-S-19
*MPC
PIN, S-19, P-19
** Constraint: P-S-20
*MPC
PIN, S-20, P-20
** Constraint: P-S-21
*MPC
PIN, S-21, P-21
** Constraint: P-S-22
*MPC
PIN, S-22, P-22
** Constraint: P-S-23
*MPC
PIN, S-23, P-23
** Constraint: P-S-24
*MPC
PIN, S-24, P-24
** Constraint: P-S-25
*MPC
PIN, S-25, P-25
** Constraint: P-S-26
*MPC
PIN, S-26, P-26
** Constraint: P-S-27
*MPC
PIN, S-27, P-27
** Constraint: P-S-28
*MPC
PIN, S-28, P-28
** Constraint: P-S-29
*MPC
PIN, S-29, P-29
** Constraint: P-S-30
*MPC
PIN, S-30, P-30
** Constraint: P-S-31
*MPC
PIN, S-31, P-31
** Constraint: P-S-32
*MPC
PIN, S-32, P-32
** Constraint: P-S-33
*MPC
PIN, S-33, P-33
** Constraint: P-S-34
*MPC
PIN, S-34, P-34
** Constraint: P-S-35
*MPC
PIN, S-35, P-35
** Constraint: P-S-36
*MPC
PIN, S-36, P-36
** Constraint: P-S-37
*MPC
PIN, S-37, P-37
** Constraint: P-S-38
*MPC
PIN, S-38, P-38
** Constraint: P-S-39
*MPC
PIN, S-39, P-39
** Constraint: P-S-40
*MPC
PIN, S-40, P-40
** Constraint: P-S-41
*MPC
PIN, S-41, P-41
** Constraint: P-S-42
*MPC
PIN, S-42, P-42
** Constraint: P-S-43
*MPC
PIN, S-43, P-43
** Constraint: P-S-44
*MPC
PIN, S-44, P-44
** Constraint: P-S-45
*MPC
PIN, S-45, P-45
** Constraint: P-S-46
*MPC
PIN, S-46, P-46
** Constraint: P-S-47
*MPC
PIN, S-47, P-47
** Constraint: P-S-48
*MPC
PIN, S-48, P-48
** Constraint: P-S-49
*MPC
PIN, S-49, P-49
** Constraint: P-S-50
*MPC
PIN, S-50, P-50
** Constraint: P-S-51
*MPC
PIN, S-51, P-51
** Constraint: P-S-52
*MPC
PIN, S-52, P-52
** Constraint: P-S-53
*MPC
PIN, S-53, P-53
** Constraint: P-S-54
*MPC
PIN, S-54, P-54
** Constraint: P-S-55
*MPC
PIN, S-55, P-55
** Constraint: P-S-56
*MPC
PIN, S-56, P-56
** Constraint: P-S-57
*MPC
PIN, S-57, P-57
** Constraint: P-S-58
*MPC
PIN, S-58, P-58
** Constraint: P-S-59
*MPC
PIN, S-59, P-59
** Constraint: P-S-60
*MPC
PIN, S-60, P-60
** Constraint: P-S-61
*MPC
PIN, S-61, P-61
** Constraint: P-S-62
*MPC
PIN, S-62, P-62
** Constraint: P-S-63
*MPC
PIN, S-63, P-63
** Constraint: P-S-64
*MPC
PIN, S-64, P-64
** Constraint: P-S-65
*MPC
PIN, S-65, P-65
** Constraint: P-S-66
*MPC
PIN, S-66, P-66
** Constraint: P-S-67
*MPC
PIN, S-67, P-67
** Constraint: P-S-68
*MPC
PIN, S-68, P-68
** Constraint: P-S-69
*MPC
PIN, S-69, P-69
** Constraint: P-S-70
*MPC
PIN, S-70, P-70
** Constraint: P-S-71
*MPC
PIN, S-71, P-71
** Constraint: P-S-72
*MPC
PIN, S-72, P-72
** Constraint: P-S-73
*MPC
PIN, S-73, P-73
** Constraint: P-S-74
*MPC
PIN, S-74, P-74
** Constraint: P-S-75
*MPC
PIN, S-75, P-75
** Constraint: P-S-76
*MPC
PIN, S-76, P-76
** Constraint: P-S-77
*MPC
PIN, S-77, P-77
** Constraint: P-S-78
*MPC
PIN, S-78, P-78
** Constraint: P-S-79
*MPC
PIN, S-79, P-79
** Constraint: P-S-80
*MPC
PIN, S-80, P-80
** Constraint: P-S-81
*MPC
PIN, S-81, P-81
** Constraint: P-S-82
*MPC
PIN, S-82, P-82
** Constraint: P-S-83
*MPC
PIN, S-83, P-83
** Constraint: P-S-84
*MPC
PIN, S-84, P-84
** Constraint: P-S-85
*MPC
PIN, S-85, P-85
** Constraint: P-S-86
*MPC
PIN, S-86, P-86
** Constraint: P-S-87
*MPC
PIN, S-87, P-87
** Constraint: P-S-88
*MPC
PIN, S-88, P-88
** Constraint: P-S-89
*MPC
PIN, S-89, P-89
** Constraint: P-S-90
*MPC
PIN, S-90, P-90
** Constraint: P-S-91
*MPC
PIN, S-91, P-91
** Constraint: P-S-92
*MPC
PIN, S-92, P-92
** Constraint: P-S-93
*MPC
PIN, S-93, P-93
** Constraint: P-S-94
*MPC
PIN, S-94, P-94
** Constraint: P-S-95
*MPC
PIN, S-95, P-95
** Constraint: P-S-96
*MPC
PIN, S-96, P-96
** Constraint: P-S-97
*MPC
PIN, S-97, P-97
** Constraint: P-S-98
*MPC
PIN, S-98, P-98
** Constraint: P-S-99
*MPC
PIN, S-99, P-99
** Constraint: P-S-100
*MPC
PIN, S-100, P-100
** Constraint: P-S-101
*MPC
PIN, S-101, P-101
** Constraint: P-S-102
*MPC
PIN, S-102, P-102
** Constraint: P-S-103
*MPC
PIN, S-103, P-103
** Constraint: P-S-104
*MPC
PIN, S-104, P-104
** Constraint: P-S-105
*MPC
PIN, S-105, P-105
** Constraint: P-S-106
*MPC
PIN, S-106, P-106
** Constraint: P-S-107
*MPC
PIN, S-107, P-107
** Constraint: P-S-108
*MPC
PIN, S-108, P-108
** Constraint: P-S-109
*MPC
PIN, S-109, P-109
** Constraint: P-S-110
*MPC
PIN, S-110, P-110
** Constraint: P-S-111
*MPC
PIN, S-111, P-111
** Constraint: P-S-112
*MPC
PIN, S-112, P-112
** Constraint: P-S-113
*MPC
PIN, S-113, P-113
** Constraint: P-S-114
*MPC
PIN, S-114, P-114
** Constraint: P-S-115
*MPC
PIN, S-115, P-115
** Constraint: P-S-116
*MPC
PIN, S-116, P-116
** Constraint: P-S-117
*MPC
PIN, S-117, P-117
** Constraint: P-S-118
*MPC
PIN, S-118, P-118
** Constraint: P-S-119
*MPC
PIN, S-119, P-119
** Constraint: P-S-120
*MPC
PIN, S-120, P-120
** Constraint: P-S-121
*MPC
PIN, S-121, P-121
** Constraint: P-S-122
*MPC
PIN, S-122, P-122
** Constraint: P-S-123
*MPC
PIN, S-123, P-123
** Constraint: P-S-124
*MPC
PIN, S-124, P-124
** Constraint: P-S-125
*MPC
PIN, S-125, P-125
** Constraint: P-S-126
*MPC
PIN, S-126, P-126
** Constraint: P-S-127
*MPC
PIN, S-127, P-127
** Constraint: P-S-128
*MPC
PIN, S-128, P-128
** Constraint: P-S-129
*MPC
PIN, S-129, P-129
** Constraint: P-S-130
*MPC
PIN, S-130, P-130
** Constraint: P-S-131
*MPC
PIN, S-131, P-131
** Constraint: P-S-132
*MPC
PIN, S-132, P-132
** Constraint: P-S-133
*MPC
PIN, S-133, P-133
** Constraint: P-S-134
*MPC
PIN, S-134, P-134
** Constraint: P-S-135
*MPC
PIN, S-135, P-135
** Constraint: P-S-136
*MPC
PIN, S-136, P-136
** Constraint: P-S-137
*MPC
PIN, S-137, P-137
** Constraint: P-S-138
*MPC
PIN, S-138, P-138
** Constraint: P-S-139
*MPC
PIN, S-139, P-139
** Constraint: P-S-140
*MPC
PIN, S-140, P-140
** Constraint: P-S-141
*MPC
PIN, S-141, P-141
** Constraint: P-S-142
*MPC
PIN, S-142, P-142
** Constraint: P-S-143
*MPC
PIN, S-143, P-143
** Constraint: P-S-144
*MPC
PIN, S-144, P-144
** Constraint: P-S-145
*MPC
PIN, S-145, P-145
** Constraint: P-S-146
*MPC
PIN, S-146, P-146
** Constraint: P-S-147
*MPC
PIN, S-147, P-147
** Constraint: P-S-148
*MPC
PIN, S-148, P-148
** Constraint: P-S-149
*MPC
PIN, S-149, P-149
** Constraint: P-S-150
*MPC
PIN, S-150, P-150
** Constraint: P-S-151
*MPC
PIN, S-151, P-151
** Constraint: P-S-152
*MPC
PIN, S-152, P-152
** Constraint: P-S-153
*MPC
PIN, S-153, P-153
** Constraint: P-S-154
*MPC
PIN, S-154, P-154
** Constraint: P-S-155
*MPC
PIN, S-155, P-155
** Constraint: P-S-156
*MPC
PIN, S-156, P-156
** Constraint: P-S-157
*MPC
PIN, S-157, P-157
** Constraint: P-S-158
*MPC
PIN, S-158, P-158
** Constraint: P-S-159
*MPC
PIN, S-159, P-159
** Constraint: P-S-160
*MPC
PIN, S-160, P-160
** Constraint: P-S-161
*MPC
PIN, S-161, P-161
** Constraint: P-S-162
*MPC
PIN, S-162, P-162
** Constraint: P-S-163
*MPC
PIN, S-163, P-163
** Constraint: P-S-164
*MPC
PIN, S-164, P-164
** Constraint: P-S-165
*MPC
PIN, S-165, P-165
** Constraint: P-S-166
*MPC
PIN, S-166, P-166
** Constraint: P-S-167
*MPC
PIN, S-167, P-167
** Constraint: P-S-168
*MPC
PIN, S-168, P-168
** Constraint: P-S-169
*MPC
PIN, S-169, P-169
** Constraint: P-S-170
*MPC
PIN, S-170, P-170
** Constraint: P-S-171
*MPC
PIN, S-171, P-171
** Constraint: P-S-172
*MPC
PIN, S-172, P-172
** Constraint: P-S-173
*MPC
PIN, S-173, P-173
** Constraint: P-S-174
*MPC
PIN, S-174, P-174
** Constraint: P-S-175
*MPC
PIN, S-175, P-175
** Constraint: P-S-176
*MPC
PIN, S-176, P-176
** Constraint: P-S-177
*MPC
PIN, S-177, P-177
** Constraint: P-S-178
*MPC
PIN, S-178, P-178
** Constraint: P-S-179
*MPC
PIN, S-179, P-179
** Constraint: P-S-180
*MPC
PIN, S-180, P-180
** Constraint: P-S-181
*MPC
PIN, S-181, P-181
** Constraint: P-S-182
*MPC
PIN, S-182, P-182
** Constraint: P-S-183
*MPC
PIN, S-183, P-183
** Constraint: P-S-184
*MPC
PIN, S-184, P-184
** Constraint: P-S-185
*MPC
PIN, S-185, P-185
** Constraint: P-S-186
*MPC
PIN, S-186, P-186
** Constraint: P-S-187
*MPC
PIN, S-187, P-187
** Constraint: P-S-188
*MPC
PIN, S-188, P-188
** Constraint: P-S-189
*MPC
PIN, S-189, P-189
** Constraint: P-S-190
*MPC
PIN, S-190, P-190
** Constraint: P-S-191
*MPC
PIN, S-191, P-191
** Constraint: P-S-192
*MPC
PIN, S-192, P-192
** Constraint: P-S-193
*MPC
PIN, S-193, P-193
** Constraint: P-S-194
*MPC
PIN, S-194, P-194
** Constraint: P-S-195
*MPC
PIN, S-195, P-195
** Constraint: P-S-196
*MPC
PIN, S-196, P-196
** Constraint: P-S-197
*MPC
PIN, S-197, P-197
** Constraint: P-S-198
*MPC
PIN, S-198, P-198
** Constraint: P-S-199
*MPC
PIN, S-199, P-199
** Constraint: P-S-200
*MPC
PIN, S-200, P-200
** Constraint: P-S-201
*MPC
PIN, S-201, P-201
** Constraint: P-S-202
*MPC
PIN, S-202, P-202
** Constraint: P-S-203
*MPC
PIN, S-203, P-203
** Constraint: P-S-204
*MPC
PIN, S-204, P-204
** Constraint: P-S-205
*MPC
PIN, S-205, P-205
** Constraint: P-S-206
*MPC
PIN, S-206, P-206
** Constraint: P-S-207
*MPC
PIN, S-207, P-207
** Constraint: P-S-208
*MPC
PIN, S-208, P-208
** Constraint: P-S-209
*MPC
PIN, S-209, P-209
** Constraint: P-S-210
*MPC
PIN, S-210, P-210
** Constraint: P-S-211
*MPC
PIN, S-211, P-211
** Constraint: P-S-212
*MPC
PIN, S-212, P-212
** Constraint: P-S-213
*MPC
PIN, S-213, P-213
** Constraint: P-S-214
*MPC
PIN, S-214, P-214
** Constraint: P-S-215
*MPC
PIN, S-215, P-215
** Constraint: P-S-216
*MPC
PIN, S-216, P-216
** Constraint: P-S-217
*MPC
PIN, S-217, P-217
** Constraint: P-S-218
*MPC
PIN, S-218, P-218
** Constraint: P-S-219
*MPC
PIN, S-219, P-219
** Constraint: P-S-220
*MPC
PIN, S-220, P-220
** Constraint: P-S-221
*MPC
PIN, S-221, P-221
** Constraint: P-S-222
*MPC
PIN, S-222, P-222
** Constraint: P-S-223
*MPC
PIN, S-223, P-223
** Constraint: P-S-224
*MPC
PIN, S-224, P-224
** Constraint: P-S-225
*MPC
PIN, S-225, P-225
** Constraint: P-S-226
*MPC
PIN, S-226, P-226
** Constraint: P-S-227
*MPC
PIN, S-227, P-227
** Constraint: P-S-228
*MPC
PIN, S-228, P-228
** Constraint: P-S-229
*MPC
PIN, S-229, P-229
** Constraint: P-S-230
*MPC
PIN, S-230, P-230
** Constraint: P-S-231
*MPC
PIN, S-231, P-231
** Constraint: P-S-232
*MPC
PIN, S-232, P-232
** Constraint: P-S-233
*MPC
PIN, S-233, P-233
** Constraint: P-S-234
*MPC
PIN, S-234, P-234
** Constraint: P-S-235
*MPC
PIN, S-235, P-235
** Constraint: P-S-236
*MPC
PIN, S-236, P-236
** Constraint: P-S-237
*MPC
PIN, S-237, P-237
** Constraint: P-S-238
*MPC
PIN, S-238, P-238
** Constraint: P-S-239
*MPC
PIN, S-239, P-239
** Constraint: P-S-240
*MPC
PIN, S-240, P-240
** Constraint: P-S-241
*MPC
PIN, S-241, P-241
** Constraint: P-S-242
*MPC
PIN, S-242, P-242
** Constraint: P-S-243
*MPC
PIN, S-243, P-243
** Constraint: P-S-244
*MPC
PIN, S-244, P-244
** Constraint: P-S-245
*MPC
PIN, S-245, P-245
** Constraint: P-S-246
*MPC
PIN, S-246, P-246
** Constraint: P-S-247
*MPC
PIN, S-247, P-247
** Constraint: P-S-248
*MPC
PIN, S-248, P-248
** Constraint: P-S-249
*MPC
PIN, S-249, P-249
** Constraint: P-S-250
*MPC
PIN, S-250, P-250
** Constraint: P-S-251
*MPC
PIN, S-251, P-251
** Constraint: P-S-252
*MPC
PIN, S-252, P-252
** Constraint: P-S-253
*MPC
PIN, S-253, P-253
** Constraint: P-S-254
*MPC
PIN, S-254, P-254
** Constraint: P-S-255
*MPC
PIN, S-255, P-255
** Constraint: P-S-256
*MPC
PIN, S-256, P-256
** Constraint: P-S-257
*MPC
PIN, S-257, P-257
** Constraint: P-S-258
*MPC
PIN, S-258, P-258
** Constraint: P-S-259
*MPC
PIN, S-259, P-259
** Constraint: P-S-260
*MPC
PIN, S-260, P-260
** Constraint: P-S-261
*MPC
PIN, S-261, P-261
** Constraint: P-S-262
*MPC
PIN, S-262, P-262
** Constraint: P-S-263
*MPC
PIN, S-263, P-263
** Constraint: P-S-264
*MPC
PIN, S-264, P-264
** Constraint: P-S-265
*MPC
PIN, S-265, P-265
** Constraint: P-S-266
*MPC
PIN, S-266, P-266
** Constraint: P-S-267
*MPC
PIN, S-267, P-267
** Constraint: P-S-268
*MPC
PIN, S-268, P-268
** Constraint: P-S-269
*MPC
PIN, S-269, P-269
** Constraint: P-S-270
*MPC
PIN, S-270, P-270
** Constraint: P-S-271
*MPC
PIN, S-271, P-271
** Constraint: P-S-272
*MPC
PIN, S-272, P-272
** Constraint: P-S-273
*MPC
PIN, S-273, P-273
** Constraint: P-S-274
*MPC
PIN, S-274, P-274
** Constraint: P-S-275
*MPC
PIN, S-275, P-275
** Constraint: P-S-276
*MPC
PIN, S-276, P-276
** Constraint: P-S-277
*MPC
PIN, S-277, P-277
** Constraint: P-S-278
*MPC
PIN, S-278, P-278
** Constraint: P-S-279
*MPC
PIN, S-279, P-279
** Constraint: P-S-280
*MPC
PIN, S-280, P-280
** Constraint: P-S-281
*MPC
PIN, S-281, P-281
** Constraint: P-S-282
*MPC
PIN, S-282, P-282
** Constraint: P-S-283
*MPC
PIN, S-283, P-283
** Constraint: P-S-284
*MPC
PIN, S-284, P-284
** Constraint: P-S-285
*MPC
PIN, S-285, P-285
** Constraint: P-S-286
*MPC
PIN, S-286, P-286
** Constraint: P-S-287
*MPC
PIN, S-287, P-287
** Constraint: P-S-288
*MPC
PIN, S-288, P-288
** Constraint: P-S-289
*MPC
PIN, S-289, P-289
** Constraint: P-S-290
*MPC
PIN, S-290, P-290
** Constraint: P-S-291
*MPC
PIN, S-291, P-291
** Constraint: P-S-292
*MPC
PIN, S-292, P-292
** Constraint: P-S-293
*MPC
PIN, S-293, P-293
** Constraint: P-S-294
*MPC
PIN, S-294, P-294
** Constraint: P-S-295
*MPC
PIN, S-295, P-295
** Constraint: P-S-296
*MPC
PIN, S-296, P-296
** Constraint: P-S-297
*MPC
PIN, S-297, P-297
** Constraint: P-S-298
*MPC
PIN, S-298, P-298
** Constraint: P-S-299
*MPC
PIN, S-299, P-299
** Constraint: P-S-300
*MPC
PIN, S-300, P-300
** Constraint: P-S-301
*MPC
PIN, S-301, P-301
** Constraint: P-S-302
*MPC
PIN, S-302, P-302
** Constraint: P-S-303
*MPC
PIN, S-303, P-303
** Constraint: P-S-304
*MPC
PIN, S-304, P-304
** Constraint: P-S-305
*MPC
PIN, S-305, P-305
** Constraint: P-S-306
*MPC
PIN, S-306, P-306
** Constraint: P-S-307
*MPC
PIN, S-307, P-307
** Constraint: P-S-308
*MPC
PIN, S-308, P-308
** Constraint: P-S-309
*MPC
PIN, S-309, P-309
** Constraint: P-S-310
*MPC
PIN, S-310, P-310
** Constraint: P-S-311
*MPC
PIN, S-311, P-311
** Constraint: P-S-312
*MPC
PIN, S-312, P-312
** Constraint: P-S-313
*MPC
PIN, S-313, P-313
** Constraint: P-S-314
*MPC
PIN, S-314, P-314
** Constraint: P-S-315
*MPC
PIN, S-315, P-315
** Constraint: P-S-316
*MPC
PIN, S-316, P-316
** Constraint: P-S-317
*MPC
PIN, S-317, P-317
** Constraint: P-S-318
*MPC
PIN, S-318, P-318
** Constraint: P-S-319
*MPC
PIN, S-319, P-319
** Constraint: P-S-320
*MPC
PIN, S-320, P-320
** Constraint: P-S-321
*MPC
PIN, S-321, P-321
** Constraint: P-S-322
*MPC
PIN, S-322, P-322
** Constraint: P-S-323
*MPC
PIN, S-323, P-323
** Constraint: P-S-324
*MPC
PIN, S-324, P-324
** Constraint: P-S-325
*MPC
PIN, S-325, P-325
** Constraint: P-S-326
*MPC
PIN, S-326, P-326
** Constraint: P-S-327
*MPC
PIN, S-327, P-327
** Constraint: P-S-328
*MPC
PIN, S-328, P-328
** Constraint: P-S-329
*MPC
PIN, S-329, P-329
** Constraint: P-S-330
*MPC
PIN, S-330, P-330
** Constraint: P-S-331
*MPC
PIN, S-331, P-331
** Constraint: P-S-332
*MPC
PIN, S-332, P-332
** Constraint: P-S-333
*MPC
PIN, S-333, P-333
** Constraint: P-S-334
*MPC
PIN, S-334, P-334
** Constraint: P-S-335
*MPC
PIN, S-335, P-335
** Constraint: P-S-336
*MPC
PIN, S-336, P-336
** Constraint: P-S-337
*MPC
PIN, S-337, P-337
** Constraint: P-S-338
*MPC
PIN, S-338, P-338
** Constraint: P-S-339
*MPC
PIN, S-339, P-339
** Constraint: P-S-340
*MPC
PIN, S-340, P-340
** Constraint: P-S-341
*MPC
PIN, S-341, P-341
** Constraint: P-S-342
*MPC
PIN, S-342, P-342
** Constraint: P-S-343
*MPC
PIN, S-343, P-343
** Constraint: P-S-344
*MPC
PIN, S-344, P-344
** Constraint: P-S-345
*MPC
PIN, S-345, P-345
** Constraint: P-S-346
*MPC
PIN, S-346, P-346
** Constraint: P-S-347
*MPC
PIN, S-347, P-347
** Constraint: P-S-348
*MPC
PIN, S-348, P-348
** Constraint: P-S-349
*MPC
PIN, S-349, P-349
** Constraint: P-S-350
*MPC
PIN, S-350, P-350
** Constraint: P-S-351
*MPC
PIN, S-351, P-351
** Constraint: P-S-352
*MPC
PIN, S-352, P-352
** Constraint: P-S-353
*MPC
PIN, S-353, P-353
** Constraint: P-S-354
*MPC
PIN, S-354, P-354
** Constraint: P-S-355
*MPC
PIN, S-355, P-355
** Constraint: P-S-356
*MPC
PIN, S-356, P-356
** Constraint: P-S-357
*MPC
PIN, S-357, P-357
** Constraint: P-S-358
*MPC
PIN, S-358, P-358
** Constraint: P-S-359
*MPC
PIN, S-359, P-359
** Constraint: P-S-360
*MPC
PIN, S-360, P-360
** Constraint: P-S-361
*MPC
PIN, S-361, P-361
** Constraint: P-S-362
*MPC
PIN, S-362, P-362
** Constraint: P-S-363
*MPC
PIN, S-363, P-363
** Constraint: P-S-364
*MPC
PIN, S-364, P-364
** Constraint: P-S-365
*MPC
PIN, S-365, P-365
** Constraint: P-S-366
*MPC
PIN, S-366, P-366
** Constraint: P-S-367
*MPC
PIN, S-367, P-367
** Constraint: P-S-368
*MPC
PIN, S-368, P-368
** Constraint: P-S-369
*MPC
PIN, S-369, P-369
** Constraint: P-S-370
*MPC
PIN, S-370, P-370
** Constraint: P-S-371
*MPC
PIN, S-371, P-371
** Constraint: P-S-372
*MPC
PIN, S-372, P-372
** Constraint: P-S-373
*MPC
PIN, S-373, P-373
** Constraint: P-S-374
*MPC
PIN, S-374, P-374
** Constraint: P-S-375
*MPC
PIN, S-375, P-375
** Constraint: P-S-376
*MPC
PIN, S-376, P-376
** Constraint: P-S-377
*MPC
PIN, S-377, P-377
** Constraint: P-S-378
*MPC
PIN, S-378, P-378
** Constraint: P-S-379
*MPC
PIN, S-379, P-379
** Constraint: P-S-380
*MPC
PIN, S-380, P-380
** Constraint: P-S-381
*MPC
PIN, S-381, P-381
** Constraint: P-S-382
*MPC
PIN, S-382, P-382
** Constraint: P-S-383
*MPC
PIN, S-383, P-383
** Constraint: P-S-384
*MPC
PIN, S-384, P-384
** Constraint: P-S-385
*MPC
PIN, S-385, P-385
** Constraint: P-S-386
*MPC
PIN, S-386, P-386
** Constraint: P-S-387
*MPC
PIN, S-387, P-387
** Constraint: P-S-388
*MPC
PIN, S-388, P-388
** Constraint: P-S-389
*MPC
PIN, S-389, P-389
** Constraint: P-S-390
*MPC
PIN, S-390, P-390
** Constraint: P-S-391
*MPC
PIN, S-391, P-391
** Constraint: P-S-392
*MPC
PIN, S-392, P-392
** Constraint: P-S-393
*MPC
PIN, S-393, P-393
** Constraint: P-S-394
*MPC
PIN, S-394, P-394
** Constraint: P-S-395
*MPC
PIN, S-395, P-395
** Constraint: P-S-396
*MPC
PIN, S-396, P-396
** Constraint: P-S-397
*MPC
PIN, S-397, P-397
** Constraint: P-S-398
*MPC
PIN, S-398, P-398
** Constraint: P-S-399
*MPC
PIN, S-399, P-399
** Constraint: P-S-400
*MPC
PIN, S-400, P-400
** Constraint: P-S-401
*MPC
PIN, S-401, P-401
** Constraint: P-S-402
*MPC
PIN, S-402, P-402
** Constraint: P-S-403
*MPC
PIN, S-403, P-403
** Constraint: P-S-404
*MPC
PIN, S-404, P-404
** Constraint: P-S-405
*MPC
PIN, S-405, P-405
** Constraint: P-S-406
*MPC
PIN, S-406, P-406
** Constraint: P-S-407
*MPC
PIN, S-407, P-407
** Constraint: P-S-408
*MPC
PIN, S-408, P-408
** Constraint: P-S-409
*MPC
PIN, S-409, P-409
** Constraint: P-S-410
*MPC
PIN, S-410, P-410
** Constraint: P-S-411
*MPC
PIN, S-411, P-411
** Constraint: P-S-412
*MPC
PIN, S-412, P-412
** Constraint: P-S-413
*MPC
PIN, S-413, P-413
** Constraint: P-S-414
*MPC
PIN, S-414, P-414
** Constraint: P-S-415
*MPC
PIN, S-415, P-415
** Constraint: P-S-416
*MPC
PIN, S-416, P-416
** Constraint: P-S-417
*MPC
PIN, S-417, P-417
** Constraint: P-S-418
*MPC
PIN, S-418, P-418
** Constraint: P-S-419
*MPC
PIN, S-419, P-419
** Constraint: P-S-420
*MPC
PIN, S-420, P-420
** Constraint: P-S-421
*MPC
PIN, S-421, P-421
** Constraint: P-S-422
*MPC
PIN, S-422, P-422
** Constraint: P-S-423
*MPC
PIN, S-423, P-423
** Constraint: P-S-424
*MPC
PIN, S-424, P-424
** Constraint: P-S-425
*MPC
PIN, S-425, P-425
** Constraint: P-S-426
*MPC
PIN, S-426, P-426
** Constraint: P-S-427
*MPC
PIN, S-427, P-427
** Constraint: P-S-428
*MPC
PIN, S-428, P-428
** Constraint: P-S-429
*MPC
PIN, S-429, P-429
** Constraint: P-S-430
*MPC
PIN, S-430, P-430
** Constraint: P-S-431
*MPC
PIN, S-431, P-431
** Constraint: P-S-432
*MPC
PIN, S-432, P-432
** Constraint: P-S-433
*MPC
PIN, S-433, P-433
** Constraint: P-S-434
*MPC
PIN, S-434, P-434
** Constraint: P-S-435
*MPC
PIN, S-435, P-435
** Constraint: P-S-436
*MPC
PIN, S-436, P-436
** Constraint: P-S-437
*MPC
PIN, S-437, P-437
** Constraint: P-S-438
*MPC
PIN, S-438, P-438
** Constraint: P-S-439
*MPC
PIN, S-439, P-439
** Constraint: P-S-440
*MPC
PIN, S-440, P-440
** Constraint: P-S-441
*MPC
PIN, S-441, P-441
** Constraint: P-S-442
*MPC
PIN, S-442, P-442
** Constraint: P-S-443
*MPC
PIN, S-443, P-443
** Constraint: P-S-444
*MPC
PIN, S-444, P-444
** Constraint: P-S-445
*MPC
PIN, S-445, P-445
** Constraint: P-S-446
*MPC
PIN, S-446, P-446
** Constraint: P-S-447
*MPC
PIN, S-447, P-447
** Constraint: P-S-448
*MPC
PIN, S-448, P-448
** Constraint: P-S-449
*MPC
PIN, S-449, P-449
** Constraint: P-S-450
*MPC
PIN, S-450, P-450
** Constraint: P-S-451
*MPC
PIN, S-451, P-451
** Constraint: P-S-452
*MPC
PIN, S-452, P-452
** Constraint: P-S-453
*MPC
PIN, S-453, P-453
** Constraint: P-S-454
*MPC
PIN, S-454, P-454
** Constraint: P-S-455
*MPC
PIN, S-455, P-455
** Constraint: P-S-456
*MPC
PIN, S-456, P-456
** Constraint: P-S-457
*MPC
PIN, S-457, P-457
** Constraint: P-S-458
*MPC
PIN, S-458, P-458
** Constraint: P-S-459
*MPC
PIN, S-459, P-459
** Constraint: P-S-460
*MPC
PIN, S-460, P-460
** Constraint: P-S-461
*MPC
PIN, S-461, P-461
** Constraint: P-S-462
*MPC
PIN, S-462, P-462
** Constraint: P-S-463
*MPC
PIN, S-463, P-463
** Constraint: P-S-464
*MPC
PIN, S-464, P-464
** Constraint: P-S-465
*MPC
PIN, S-465, P-465
** Constraint: P-S-466
*MPC
PIN, S-466, P-466
** Constraint: P-S-467
*MPC
PIN, S-467, P-467
** Constraint: P-S-468
*MPC
PIN, S-468, P-468
** Constraint: P-S-469
*MPC
PIN, S-469, P-469
** Constraint: P-S-470
*MPC
PIN, S-470, P-470
** Constraint: P-S-471
*MPC
PIN, S-471, P-471
** Constraint: P-S-472
*MPC
PIN, S-472, P-472
** Constraint: P-S-473
*MPC
PIN, S-473, P-473
** Constraint: P-S-474
*MPC
PIN, S-474, P-474
** Constraint: P-S-475
*MPC
PIN, S-475, P-475
** Constraint: P-S-476
*MPC
PIN, S-476, P-476
** Constraint: P-S-477
*MPC
PIN, S-477, P-477
** Constraint: P-S-478
*MPC
PIN, S-478, P-478
** Constraint: P-S-479
*MPC
PIN, S-479, P-479
** Constraint: P-S-480
*MPC
PIN, S-480, P-480
** Constraint: P-S-481
*MPC
PIN, S-481, P-481
** Constraint: P-S-482
*MPC
PIN, S-482, P-482
** Constraint: P-S-483
*MPC
PIN, S-483, P-483
** Constraint: P-S-484
*MPC
PIN, S-484, P-484
** Constraint: P-S-485
*MPC
PIN, S-485, P-485
*Elset, elset=__Int-1_gcs0_2_S4, internal, instance=sphereInstance
  65,  66,  67,  68,  69,  70,  71,  72,  73,  74,  75,  76,  77,  78,  79,  80
  97,  98,  99, 100, 101, 102, 103, 104, 105, 106, 107, 108, 109, 110, 111, 112
*Elset, elset=__Int-1_gcs0_2_S3, internal, instance=sphereInstance, generate
 81,  96,   1
*Surface, type=ELEMENT, name=_Int-1_gcs0_2, internal
__Int-1_gcs0_2_S4, S4
__Int-1_gcs0_2_S3, S3
*End Assembly
** 
** MATERIALS
** 
*Material, name=primaryMaterial
*Density
 0.0078,
*Depvar
     13,
*User Material, constants=16, type=THERMAL, unsymm
0.,210000.,    0.3,     2.,  1e-05,    0.5,   293., 0.0078
  1000.,  0.005,    50.,     1.,    0.5,   0.01,   320.,  2560.
*User Material, constants=16, type=MECHANICAL, unsymm
0.,210000.,    0.3,     2.,  1e-05,    0.5,   293., 0.0078
  1000.,  0.005,    50.,     1.,    0.5,   0.01,   320.,  2560.
*Material, name=secondaryMaterial
*Density
 0.0078,
*Depvar
     13,
*User Material, constants=16, type=THERMAL, unsymm
1.,210000.,    0.3,     2.,  1e-05,    0.5,   293.,     1.
  1000.,  0.005,    50.,     1.,    0.5,   0.01,   320.,  2560.
*User Material, constants=16, type=MECHANICAL, unsymm
1.,210000.,    0.3,     2.,  1e-05,    0.5,   293.,     1.
  1000.,  0.005,    50.,     1.,    0.5,   0.01,   320.,  2560.
*Material, name=sphereMaterial
*Conductivity
 0.5,
*Density
 0.0078,
*Elastic
 1e+06, 0.3
*Specific Heat
 256.41,
** 
** INTERACTION PROPERTIES
** 
*Surface Interaction, name=IntProp-1
1.,
*Friction, slip tolerance=0.005
 0.2,
*Surface Behavior, pressure-overclosure=HARD
*Gap Conductance
100.,   0.
  0., 0.01
** 
** BOUNDARY CONDITIONS
** 
** Name: xPFix Type: Displacement/Rotation
*Boundary
primaryInstance.x0Face, 1, 1
** Name: xSFix Type: Displacement/Rotation
*Boundary
sphereInstance.x0Face, 1, 1
** Name: yPFix Type: Displacement/Rotation
*Boundary
primaryInstance.y0Face, 2, 2
** Name: ySFix Type: Displacement/Rotation
*Boundary
sphereInstance.y0Face, 2, 2
** Name: zPFix Type: Displacement/Rotation
*Boundary
primaryInstance.z0Face, 3, 3
** 
** PREDEFINED FIELDS
** 
** Name: Theta0   Type: Temperature
*Initial Conditions, type=TEMPERATURE
primaryInstance.allPrimaryCells, 293.
** Name: Theta0_sphere   Type: Temperature
*Initial Conditions, type=TEMPERATURE
sphereInstance.allSphereCells, 393.
** Name: phi0   Type: Temperature
*Initial Conditions, type=TEMPERATURE
secondaryInstance.allSecondaryCells, 0.
** 
** INTERACTIONS
** 
** Interaction: Int-1
*Contact
*Contact Inclusions, ALL EXTERIOR
*Contact Property Assignment
 ,  , IntProp-1
*Surface Property Assignment, property=GEOMETRIC CORRECTION
_Int-1_gcs0_2, Spherical, 0., 0., -8.
** ----------------------------------------------------------------
** 
** STEP: Step-1
** 
*Step, name=Step-1, nlgeom=YES, inc=1000000
*Coupled Temperature-displacement, creep=none, deltmx=100000.
1., 10., 1e-15, 1.
** 
** BOUNDARY CONDITIONS
** 
** Name: zLoad Type: Displacement/Rotation
*Boundary
sphereInstance.z0Face, 3, 3, 2.5
** 
** CONTROLS
** 
*Controls, reset
*Controls, parameters=time incrementation
, , , 50, 40, , , , , , 
** 
** OUTPUT REQUESTS
** 
*Restart, write, frequency=0
** 
** FIELD OUTPUT: F-Output-1
** 
*Output, field, number interval=100
*Node Output
NT, RF, RFL, U
*Element Output, directions=YES
HFL, LE, PE, PEEQ, PEMAG, S, SDV
** 
** HISTORY OUTPUT: H-Output-1
** 
*Output, history, variable=PRESELECT
*End Step
