*Heading
** Job name: elementTest Model name: elementTest
** Generated by: Abaqus/CAE 2021.HF11
*Preprint, echo=NO, model=NO, history=NO, contact=NO
**
** PARTS
**
*Part, name=primaryPart
*Node
      1,           1.,           1.,           1.
      2,           1.,           0.,           1.
      3,           1.,           1.,           0.
      4,           1.,           0.,           0.
      5,           0.,           1.,           1.
      6,           0.,           0.,           1.
      7,           0.,           1.,           0.
      8,           0.,           0.,           0.
*Element, type=C3D8T
1, 5, 6, 8, 7, 1, 2, 4, 3
*Nset, nset=allPrimaryCells, generate
 1,  8,  1
*Elset, elset=allPrimaryCells
 1,
*Nset, nset=y0Face, generate
 2,  8,  2
*Elset, elset=y0Face
 1,
*Nset, nset=x0Face, generate
 5,  8,  1
*Elset, elset=x0Face
 1,
*Nset, nset=z0Face
 3, 4, 7, 8
*Elset, elset=z0Face
 1,
*Nset, nset=y1Face, generate
 1,  7,  2
*Elset, elset=y1Face
 1,
** Section: primarySection
*Solid Section, elset=allPrimaryCells, material=primaryMaterial
,
*End Part
**  
*Part, name=secondaryPart
*Node
      1,           1.,           1.,           1.
      2,           1.,           0.,           1.
      3,           1.,           1.,           0.
      4,           1.,           0.,           0.
      5,           0.,           1.,           1.
      6,           0.,           0.,           1.
      7,           0.,           1.,           0.
      8,           0.,           0.,           0.
*Element, type=C3D8T
1, 5, 6, 8, 7, 1, 2, 4, 3
*Nset, nset=allSecondaryCells, generate
 1,  8,  1
*Elset, elset=allSecondaryCells
 1,
** Section: secondarySection
*Solid Section, elset=allSecondaryCells, material=secondaryMaterial
,
*End Part
**  
**
** ASSEMBLY
**
*Assembly, name=Assembly
**  
*Instance, name=primaryInstance, part=primaryPart
*End Instance
**  
*Instance, name=secondaryInstance, part=secondaryPart
          2.,           0.,           0.
*End Instance
**  
*Nset, nset=P-0, instance=primaryInstance
 1,
*Nset, nset=P-1, instance=primaryInstance
 2,
*Nset, nset=P-2, instance=primaryInstance
 3,
*Nset, nset=P-3, instance=primaryInstance
 4,
*Nset, nset=P-4, instance=primaryInstance
 5,
*Nset, nset=P-5, instance=primaryInstance
 6,
*Nset, nset=P-6, instance=primaryInstance
 7,
*Nset, nset=P-7, instance=primaryInstance
 8,
*Nset, nset=S-0, instance=secondaryInstance
 1,
*Nset, nset=S-1, instance=secondaryInstance
 2,
*Nset, nset=S-2, instance=secondaryInstance
 3,
*Nset, nset=S-3, instance=secondaryInstance
 4,
*Nset, nset=S-4, instance=secondaryInstance
 5,
*Nset, nset=S-5, instance=secondaryInstance
 6,
*Nset, nset=S-6, instance=secondaryInstance
 7,
*Nset, nset=S-7, instance=secondaryInstance
 8,
*Surface, type=NODE, name=S-0_CNS_, internal
S-0, 1.
*Surface, type=NODE, name=S-1_CNS_, internal
S-1, 1.
*Surface, type=NODE, name=S-2_CNS_, internal
S-2, 1.
*Surface, type=NODE, name=S-3_CNS_, internal
S-3, 1.
*Surface, type=NODE, name=S-4_CNS_, internal
S-4, 1.
*Surface, type=NODE, name=S-5_CNS_, internal
S-5, 1.
*Surface, type=NODE, name=S-6_CNS_, internal
S-6, 1.
*Surface, type=NODE, name=S-7_CNS_, internal
S-7, 1.
** Constraint: P-S-0
*MPC
PIN, S-0, P-0
** Constraint: P-S-1
*MPC
PIN, S-1, P-1
** Constraint: P-S-2
*MPC
PIN, S-2, P-2
** Constraint: P-S-3
*MPC
PIN, S-3, P-3
** Constraint: P-S-4
*MPC
PIN, S-4, P-4
** Constraint: P-S-5
*MPC
PIN, S-5, P-5
** Constraint: P-S-6
*MPC
PIN, S-6, P-6
** Constraint: P-S-7
*MPC
PIN, S-7, P-7
*End Assembly
** 
** MATERIALS
** 
*Material, name=primaryMaterial
*Density
 0.0078,
*Depvar
     13,
*User Material, constants=16, type=THERMAL
0.,210000.,    0.3,     2.,  1e-05,    0.5,   293., 0.0078
  1000.,  0.001,    50.,     1.,    0.1,   0.01,     1.,     8.
*User Material, constants=16, type=MECHANICAL
0.,210000.,    0.3,     2.,  1e-05,    0.5,   293., 0.0078
  1000.,  0.001,    50.,     1.,    0.1,   0.01,     1.,     8.
*Material, name=secondaryMaterial
*Density
 0.0078,
*Depvar
     13,
*User Material, constants=16, type=THERMAL
1.,210000.,    0.3,     2.,  1e-05,    0.5,   293., 0.0078
  1000.,  0.001,    50.,     1.,    0.1,   0.01,     1.,     8.
*User Material, constants=16, type=MECHANICAL
1.,210000.,    0.3,     2.,  1e-05,    0.5,   293., 0.0078
  1000.,  0.001,    50.,     1.,    0.1,   0.01,     1.,     8.
** 
** PREDEFINED FIELDS
** 
** Name: Theta0   Type: Temperature
*Initial Conditions, type=TEMPERATURE
primaryInstance.allPrimaryCells, 293.
** Name: phi0   Type: Temperature
*Initial Conditions, type=TEMPERATURE
secondaryInstance.allSecondaryCells, 0.
** ----------------------------------------------------------------
** 
** STEP: Step-1
** 
*Step, name=Step-1, nlgeom=YES, inc=10000
*Coupled Temperature-displacement, creep=none, deltmx=100000.
0.1, 10., 1e-05, 0.1
** 
** BOUNDARY CONDITIONS
** 
** Name: Load Type: Displacement/Rotation
*Boundary
primaryInstance.y1Face, 2, 2, 1.
** Name: xFix Type: Displacement/Rotation
*Boundary
primaryInstance.x0Face, 1, 1
** Name: yFix Type: Displacement/Rotation
*Boundary
primaryInstance.y0Face, 2, 2
** Name: zFix Type: Displacement/Rotation
*Boundary
primaryInstance.z0Face, 3, 3
** 
** OUTPUT REQUESTS
** 
*Restart, write, frequency=0
** 
** FIELD OUTPUT: F-Output-1
** 
*Output, field, number interval=100
*Node Output
CF, NT, RF, RFL, U
*Element Output, directions=YES
HFL, LE, PE, PEEQ, PEMAG, S, SDV
*Contact Output
CDISP, CSTRESS
** 
** HISTORY OUTPUT: H-Output-1
** 
*Output, history, variable=PRESELECT
*End Step
